data_image0
_cell_length_a       8.17343
_cell_length_b       27.4982
_cell_length_c       8.96056
_cell_angle_alpha    90
_cell_angle_beta     89.9999
_cell_angle_gamma    90

_symmetry_space_group_name_H-M    "P 1"
_symmetry_int_tables_number       1

loop_
  _symmetry_equiv_pos_as_xyz
  'x, y, z'

loop_
  _atom_site_label
  _atom_site_occupancy
  _atom_site_Cartn_x
  _atom_site_Cartn_y
  _atom_site_Cartn_z
  _atom_site_thermal_displace_type
  _atom_site_B_iso_or_equiv
  _atom_site_type_symbol
  Pb1      1.0000 -0.00000  13.74911  4.48032  Biso   1.000  Pb
  Pb2      1.0000 4.08670  13.74910  0.00003  Biso   1.000  Pb
  Pb3      1.0000 -0.00000  -0.00000  -0.00000  Biso   1.000  Pb
  Pb4      1.0000 4.08672  0.00000  4.48028  Biso   1.000  Pb
  Br1      1.0000 0.24002  16.72985  4.02727  Biso   1.000  Br
  Br2      1.0000 3.84671  10.76838  8.50755  Biso   1.000  Br
  Br3      1.0000 7.93341  2.98073  0.45300  Biso   1.000  Br
  Br4      1.0000 4.32673  24.51748  4.93329  Biso   1.000  Br
  Br5      1.0000 7.93341  10.76836  4.93328  Biso   1.000  Br
  Br6      1.0000 4.32672  16.72984  0.45299  Biso   1.000  Br
  Br7      1.0000 0.24002  24.51749  8.50756  Biso   1.000  Br
  Br8      1.0000 3.84670  2.98074  4.02727  Biso   1.000  Br
  Br9      1.0000 1.69156  13.48608  1.89735  Biso   1.000  Br
  Br10     1.0000 2.39517  14.01214  6.37763  Biso   1.000  Br
  Br11     1.0000 6.48188  27.23518  2.58291  Biso   1.000  Br
  Br12     1.0000 5.77827  0.26304  7.06319  Biso   1.000  Br
  Br13     1.0000 6.48192  14.01214  7.06317  Biso   1.000  Br
  Br14     1.0000 5.77825  13.48609  2.58290  Biso   1.000  Br
  Br15     1.0000 1.69156  0.26304  6.37765  Biso   1.000  Br
  Br16     1.0000 2.39516  27.23518  1.89737  Biso   1.000  Br
  N1       1.0000 7.60526  25.23852  5.38541  Biso   1.000  N
  N2       1.0000 4.65487  2.25971  0.90512  Biso   1.000  N
  N3       1.0000 0.56817  11.48940  8.05544  Biso   1.000  N
  N4       1.0000 3.51856  16.00882  3.57515  Biso   1.000  N
  N5       1.0000 0.56817  2.25971  3.57515  Biso   1.000  N
  N6       1.0000 3.51856  25.23851  8.05543  Biso   1.000  N
  N7       1.0000 7.60527  16.00883  0.90512  Biso   1.000  N
  N8       1.0000 4.65488  11.48940  5.38541  Biso   1.000  N
  H1       1.0000 7.66352  26.26392  5.48662  Biso   1.000  H
  H2       1.0000 4.59660  1.23430  1.00634  Biso   1.000  H
  H3       1.0000 0.50989  12.51480  7.95422  Biso   1.000  H
  H4       1.0000 3.57683  14.98341  3.47394  Biso   1.000  H
  H5       1.0000 0.50991  1.23430  3.47394  Biso   1.000  H
  H6       1.0000 3.57683  26.26392  7.95422  Biso   1.000  H
  H7       1.0000 7.66354  14.98342  1.00634  Biso   1.000  H
  H8       1.0000 4.59661  12.51481  5.48662  Biso   1.000  H
  H9       1.0000 7.79307  24.85174  6.34385  Biso   1.000  H
  H10      1.0000 4.46707  2.64650  1.86357  Biso   1.000  H
  H11      1.0000 0.38036  11.10262  7.09700  Biso   1.000  H
  H12      1.0000 3.70636  16.39561  2.61671  Biso   1.000  H
  H13      1.0000 0.38037  2.64648  2.61671  Biso   1.000  H
  H14      1.0000 3.70636  24.85172  7.09699  Biso   1.000  H
  H15      1.0000 7.79308  16.39561  1.86356  Biso   1.000  H
  H16      1.0000 4.46707  11.10262  6.34385  Biso   1.000  H
  H17      1.0000 6.62404  24.99294  5.11904  Biso   1.000  H
  H18      1.0000 5.63610  2.50528  0.63875  Biso   1.000  H
  H19      1.0000 1.54939  11.24383  8.32180  Biso   1.000  H
  H20      1.0000 2.53734  16.25439  3.84153  Biso   1.000  H
  H21      1.0000 1.54939  2.50528  3.84152  Biso   1.000  H
  H22      1.0000 2.53734  24.99294  8.32181  Biso   1.000  H
  H23      1.0000 6.62405  16.25440  0.63876  Biso   1.000  H
  H24      1.0000 5.63610  11.24383  5.11903  Biso   1.000  H
  C1       1.0000 0.44393  24.73513  4.38729  Biso   1.000  C
  C2       1.0000 3.64278  2.76311  8.86755  Biso   1.000  C
  C3       1.0000 7.72949  10.98601  0.09301  Biso   1.000  C
  C4       1.0000 4.53066  16.51221  4.57329  Biso   1.000  C
  C5       1.0000 7.72950  2.76309  4.57327  Biso   1.000  C
  C6       1.0000 4.53065  24.73512  0.09301  Biso   1.000  C
  C7       1.0000 0.44394  16.51222  8.86754  Biso   1.000  C
  C8       1.0000 3.64277  10.98601  4.38727  Biso   1.000  C
  H25      1.0000 0.38550  25.39881  3.51683  Biso   1.000  H
  H26      1.0000 3.70122  2.09941  7.99710  Biso   1.000  H
  H27      1.0000 7.78794  11.64968  0.96347  Biso   1.000  H
  H28      1.0000 4.47223  15.84852  5.44374  Biso   1.000  H
  H29      1.0000 7.78793  2.09941  5.44373  Biso   1.000  H
  H30      1.0000 4.47221  25.39881  0.96346  Biso   1.000  H
  H31      1.0000 0.38550  15.84854  7.99709  Biso   1.000  H
  H32      1.0000 3.70120  11.64971  3.51682  Biso   1.000  H
  H33      1.0000 1.43093  24.85414  4.85105  Biso   1.000  H
  H34      1.0000 2.65577  2.64409  0.37076  Biso   1.000  H
  H35      1.0000 6.74251  11.10502  8.58982  Biso   1.000  H
  H36      1.0000 5.51766  16.39320  4.10952  Biso   1.000  H
  H37      1.0000 6.74250  2.64408  4.10951  Biso   1.000  H
  H38      1.0000 5.51766  24.85413  8.58980  Biso   1.000  H
  H39      1.0000 1.43093  16.39320  0.37074  Biso   1.000  H
  H40      1.0000 2.65578  11.10502  4.85105  Biso   1.000  H
  C9       1.0000 0.17230  23.30845  4.00513  Biso   1.000  C
  C10      1.0000 3.91443  4.18979  8.48540  Biso   1.000  C
  C11      1.0000 8.00112  9.55932  0.47516  Biso   1.000  C
  C12      1.0000 4.25902  17.93890  4.95543  Biso   1.000  C
  C13      1.0000 8.00113  4.18977  4.95543  Biso   1.000  C
  C14      1.0000 4.25901  23.30843  0.47515  Biso   1.000  C
  C15      1.0000 0.17231  17.93890  8.48540  Biso   1.000  C
  C16      1.0000 3.91442  9.55933  4.00513  Biso   1.000  C
  C17      1.0000 0.75549  22.25281  4.71732  Biso   1.000  C
  C18      1.0000 3.33122  5.24542  0.23703  Biso   1.000  C
  C19      1.0000 7.41795  8.50369  8.72352  Biso   1.000  C
  C20      1.0000 4.84222  18.99453  4.24325  Biso   1.000  C
  C21      1.0000 7.41794  5.24541  4.24324  Biso   1.000  C
  C22      1.0000 4.84221  22.25280  8.72352  Biso   1.000  C
  C23      1.0000 0.75549  18.99453  0.23704  Biso   1.000  C
  C24      1.0000 3.33122  8.50369  4.71731  Biso   1.000  C
  H41      1.0000 1.41926  22.46941  5.55568  Biso   1.000  H
  H42      1.0000 2.66746  5.02882  1.07540  Biso   1.000  H
  H43      1.0000 6.75419  8.72030  7.88515  Biso   1.000  H
  H44      1.0000 5.50598  18.77793  3.40489  Biso   1.000  H
  H45      1.0000 6.75417  5.02881  3.40488  Biso   1.000  H
  H46      1.0000 5.50597  22.46941  7.88515  Biso   1.000  H
  H47      1.0000 1.41925  18.77792  1.07540  Biso   1.000  H
  H48      1.0000 2.66746  8.72029  5.55567  Biso   1.000  H
  C25      1.0000 0.51468  20.92949  4.34093  Biso   1.000  C
  C26      1.0000 3.57205  6.56875  8.82121  Biso   1.000  C
  C27      1.0000 7.65874  7.18036  0.13934  Biso   1.000  C
  C28      1.0000 4.60139  20.31786  4.61964  Biso   1.000  C
  C29      1.0000 7.65875  6.56874  4.61963  Biso   1.000  C
  C30      1.0000 4.60138  20.92947  0.13935  Biso   1.000  C
  C31      1.0000 0.51469  20.31787  8.82122  Biso   1.000  C
  C32      1.0000 3.57204  7.18037  4.34092  Biso   1.000  C
  H49      1.0000 0.98517  20.11242  4.88549  Biso   1.000  H
  H50      1.0000 3.10155  7.38581  0.40522  Biso   1.000  H
  H51      1.0000 7.18827  6.36330  8.55532  Biso   1.000  H
  H52      1.0000 5.07188  21.13492  4.07507  Biso   1.000  H
  H53      1.0000 7.18826  7.38580  4.07506  Biso   1.000  H
  H54      1.0000 5.07188  20.11241  8.55534  Biso   1.000  H
  H55      1.0000 0.98517  21.13493  0.40524  Biso   1.000  H
  H56      1.0000 3.10155  6.36330  4.88548  Biso   1.000  H
  C33      1.0000 7.85868  20.65789  3.25328  Biso   1.000  C
  C34      1.0000 4.40146  6.84034  7.73355  Biso   1.000  C
  C35      1.0000 0.31474  6.90875  1.22698  Biso   1.000  C
  C36      1.0000 3.77197  20.58945  5.70729  Biso   1.000  C
  C37      1.0000 0.31475  6.84033  5.70727  Biso   1.000  C
  C38      1.0000 3.77197  20.65788  1.22701  Biso   1.000  C
  C39      1.0000 7.85870  20.58947  7.73357  Biso   1.000  C
  C40      1.0000 4.40146  6.90878  3.25327  Biso   1.000  C
  H57      1.0000 7.69280  19.62380  2.95123  Biso   1.000  H
  H58      1.0000 4.56735  7.87443  7.43151  Biso   1.000  H
  H59      1.0000 0.48062  5.87466  1.52903  Biso   1.000  H
  H60      1.0000 3.60608  21.62353  6.00933  Biso   1.000  H
  H61      1.0000 0.48064  7.87442  6.00932  Biso   1.000  H
  H62      1.0000 3.60609  19.62379  1.52905  Biso   1.000  H
  H63      1.0000 7.69282  21.62356  7.43153  Biso   1.000  H
  H64      1.0000 4.56735  5.87469  2.95122  Biso   1.000  H
  C41      1.0000 7.26022  21.70477  2.54833  Biso   1.000  C
  C42      1.0000 4.99992  5.79347  7.02860  Biso   1.000  C
  C43      1.0000 0.91319  7.95562  1.93194  Biso   1.000  C
  C44      1.0000 3.17352  19.54257  6.41223  Biso   1.000  C
  C45      1.0000 0.91321  5.79345  6.41222  Biso   1.000  C
  C46      1.0000 3.17352  21.70475  1.93196  Biso   1.000  C
  C47      1.0000 7.26024  19.54260  7.02862  Biso   1.000  C
  C48      1.0000 4.99992  7.95566  2.54832  Biso   1.000  C
  H65      1.0000 6.61631  21.49488  1.69656  Biso   1.000  H
  H66      1.0000 5.64382  6.00335  6.17682  Biso   1.000  H
  H67      1.0000 1.55711  7.74573  2.78372  Biso   1.000  H
  H68      1.0000 2.52961  19.75245  7.26400  Biso   1.000  H
  H69      1.0000 1.55713  6.00334  7.26399  Biso   1.000  H
  H70      1.0000 2.52962  21.49487  2.78374  Biso   1.000  H
  H71      1.0000 6.61632  19.75250  6.17684  Biso   1.000  H
  H72      1.0000 5.64383  7.74578  1.69655  Biso   1.000  H
  C49      1.0000 7.50200  23.02526  2.92179  Biso   1.000  C
  C50      1.0000 4.75814  4.47297  7.40205  Biso   1.000  C
  C51      1.0000 0.67142  9.27612  1.55850  Biso   1.000  C
  C52      1.0000 3.41530  18.22208  6.03878  Biso   1.000  C
  C53      1.0000 0.67143  4.47296  6.03876  Biso   1.000  C
  C54      1.0000 3.41530  23.02525  1.55851  Biso   1.000  C
  C55      1.0000 7.50201  18.22210  7.40206  Biso   1.000  C
  C56      1.0000 4.75813  9.27615  2.92178  Biso   1.000  C
  H73      1.0000 7.05010  23.84226  2.35784  Biso   1.000  H
  H74      1.0000 5.21004  3.65598  6.83810  Biso   1.000  H
  H75      1.0000 1.12332  10.09311  2.12246  Biso   1.000  H
  H76      1.0000 2.96340  17.40508  6.60273  Biso   1.000  H
  H77      1.0000 1.12334  3.65597  6.60272  Biso   1.000  H
  H78      1.0000 2.96340  23.84225  2.12246  Biso   1.000  H
  H79      1.0000 7.05011  17.40512  6.83810  Biso   1.000  H
  H80      1.0000 5.21003  10.09315  2.35783  Biso   1.000  H
